5
Coordinates from ORCA-job sih4
  Si  -0.31138952366620      1.89074894749045     -0.00141479321132
  H   1.17031388331119      1.89078343644842      0.00145859340315
  H   -0.81131032091810      2.04995336911588     -1.38667664844355
  H   -0.80969286319935      3.01039409262807      0.83035882752543
  H   -0.80983117552754      0.61218015431718      0.55627402072628
